73894
  -OEChem-03172007303D

  6  5  0     0  0  0  0  0  0999 V2000
   -0.4658    1.2083    0.3826 F   0  0  0  0  0  0  0  0  0  0  0  0
   -0.4637   -0.9365    0.8552 F   0  0  0  0  0  0  0  0  0  0  0  0
   -0.4632   -0.2733   -1.2385 F   0  0  0  0  0  0  0  0  0  0  0  0
    1.4009    0.0015    0.0007 O   0  0  0  0  0  0  0  0  0  0  0  0
   -0.0082    0.0000    0.0000 C   0  0  0  0  0  0  0  0  0  0  0  0
    1.6804   -0.8860   -0.2802 H   0  0  0  0  0  0  0  0  0  0  0  0
  1  5  1  0  0  0  0
  2  5  1  0  0  0  0
  3  5  1  0  0  0  0
  4  5  1  0  0  0  0
  4  6  1  0  0  0  0
M  END
> <PUBCHEM_COMPOUND_CID>
73894

> <PUBCHEM_CONFORMER_RMSD>
0.4

> <PUBCHEM_CONFORMER_DIVERSEORDER>
1

> <PUBCHEM_MMFF94_PARTIAL_CHARGES>
6
1 -0.34
2 -0.34
3 -0.34
4 -0.68
5 1.3
6 0.4

> <PUBCHEM_EFFECTIVE_ROTOR_COUNT>
0

> <PUBCHEM_PHARMACOPHORE_FEATURES>
2
1 4 acceptor
1 4 donor

> <PUBCHEM_HEAVY_ATOM_COUNT>
5

> <PUBCHEM_ATOM_DEF_STEREO_COUNT>
0

> <PUBCHEM_ATOM_UDEF_STEREO_COUNT>
0

> <PUBCHEM_BOND_DEF_STEREO_COUNT>
0

> <PUBCHEM_BOND_UDEF_STEREO_COUNT>
0

> <PUBCHEM_ISOTOPIC_ATOM_COUNT>
0

> <PUBCHEM_COMPONENT_COUNT>
1

> <PUBCHEM_CACTVS_TAUTO_COUNT>
1

> <PUBCHEM_CONFORMER_ID>
000120A600000001

> <PUBCHEM_MMFF94_ENERGY>
1.5701

> <PUBCHEM_FEATURE_SELFOVERLAP>
10.148

> <PUBCHEM_SHAPE_FINGERPRINT>
21015797 1 11933965591458674962
5943 1 12871552167571357699

> <PUBCHEM_SHAPE_MULTIPOLES>
75.21
1.01
0.94
0.94
0.47
0.25
0.1
0
0
-0.2
-0.1
-0.2
-0.25
0

> <PUBCHEM_SHAPE_SELFOVERLAP>
136.558

> <PUBCHEM_SHAPE_VOLUME>
49.2

> <PUBCHEM_COORDINATE_TYPE>
2
5
10

$$$$
